Version 4
SHEET 1 880 680
WIRE 128 -32 128 -48
WIRE 128 -32 48 -32
WIRE 208 -32 128 -32
WIRE 48 0 48 -32
WIRE 208 0 208 -32
WIRE 208 112 208 80
WIRE -112 160 -112 128
WIRE 48 160 48 80
WIRE 112 160 48 160
WIRE 208 224 208 208
WIRE 336 224 208 224
WIRE 208 240 208 224
WIRE 48 256 48 160
WIRE -112 272 -112 240
WIRE 48 352 48 320
WIRE 128 352 48 352
WIRE 208 352 208 320
WIRE 208 352 128 352
WIRE 128 368 128 352
FLAG 128 368 0
FLAG 128 -48 V_BB
IOPIN 128 -48 In
FLAG -112 128 V_BB
IOPIN -112 128 In
FLAG -112 272 0
FLAG 336 224 V_out
IOPIN 336 224 Out
SYMBOL 2N2646 160 112 R0
SYMATTR InstName U1
SYMBOL res 192 -16 R0
SYMATTR InstName R_B2
SYMATTR Value 100
SYMBOL res 192 224 R0
SYMATTR InstName R_B1
SYMATTR Value 20
SYMBOL res 32 -16 R0
SYMATTR InstName R1
SYMATTR Value 10k
SYMBOL cap 32 256 R0
SYMATTR InstName C1
SYMATTR Value 0.2Á
SYMBOL voltage -112 144 R0
WINDOW 123 0 0 Left 0
WINDOW 39 0 0 Left 0
SYMATTR InstName V1
SYMATTR Value 20
TEXT -296 -64 Left 2 !.tran 50ms
TEXT -320 -112 Left 2 ;Simulaciˇn:
TEXT -296 -88 Left 2 !.include 2N2646.sub
