Version 4
SHEET 1 1296 1572
WIRE -704 -240 -832 -240
WIRE -480 -240 -624 -240
WIRE -400 -176 -656 -176
WIRE -656 -128 -656 -176
WIRE 224 -112 112 -112
WIRE 656 -112 480 -112
WIRE 768 -112 656 -112
WIRE 992 -112 848 -112
WIRE 112 -64 112 -112
WIRE -960 -32 -1216 -32
WIRE -784 -32 -880 -32
WIRE -400 -32 -528 -32
WIRE 656 -32 656 -112
WIRE 704 -32 656 -32
WIRE 816 -32 768 -32
WIRE 864 -32 816 -32
WIRE 992 -32 992 -112
WIRE 992 -32 944 -32
WIRE 1136 -32 992 -32
WIRE 1184 -32 1136 -32
WIRE -48 16 -80 16
WIRE 64 16 32 16
WIRE 480 16 480 -112
WIRE 656 16 656 -32
WIRE -1216 32 -1216 -32
WIRE -1088 32 -1216 32
WIRE -992 32 -1024 32
WIRE -784 32 -992 32
WIRE -400 32 -528 32
WIRE 112 80 112 32
WIRE -992 96 -992 32
WIRE -960 96 -992 96
WIRE -784 96 -880 96
WIRE -400 96 -528 96
WIRE 224 96 224 -112
WIRE 656 112 656 80
WIRE 656 112 384 112
WIRE 1136 144 1136 -32
WIRE -1216 160 -1216 32
WIRE -784 160 -1120 160
WIRE 384 160 384 112
WIRE 816 160 816 -32
WIRE 992 160 992 -32
WIRE 64 192 -80 192
WIRE 224 192 224 176
WIRE 224 192 64 192
WIRE 224 208 224 192
WIRE -784 224 -1024 224
WIRE -480 224 -480 -240
WIRE -480 224 -528 224
WIRE 64 224 64 192
WIRE 384 272 384 240
WIRE 480 272 480 80
WIRE 480 272 384 272
WIRE -832 288 -832 -240
WIRE -832 288 -928 288
WIRE -784 288 -832 288
WIRE 480 304 480 272
WIRE 656 304 656 112
WIRE 64 320 64 288
WIRE 224 336 224 288
WIRE 224 336 112 336
WIRE -784 352 -832 352
WIRE 112 368 112 336
WIRE -1024 384 -1024 224
WIRE -928 384 -928 288
WIRE -832 384 -832 352
WIRE -1120 400 -1120 160
WIRE -448 416 -448 400
WIRE -304 416 -304 400
WIRE -48 448 -80 448
WIRE 64 448 32 448
WIRE -1120 496 -1120 464
WIRE -1024 496 -1024 464
WIRE -1024 496 -1120 496
WIRE -928 496 -928 464
WIRE -928 496 -1024 496
WIRE -832 496 -832 464
WIRE -832 496 -928 496
WIRE -656 496 -656 384
WIRE -656 496 -832 496
WIRE 480 496 480 368
WIRE 656 496 656 368
WIRE 656 496 480 496
WIRE 816 496 816 224
WIRE 816 496 656 496
WIRE 992 496 992 224
WIRE 992 496 816 496
WIRE 1136 496 1136 224
WIRE 1136 496 992 496
WIRE -656 512 -656 496
WIRE -448 512 -448 496
WIRE -304 512 -304 496
WIRE 112 512 112 464
WIRE 480 512 480 496
FLAG 112 80 0
FLAG 112 512 0
FLAG -80 16 V_G1
IOPIN -80 16 In
FLAG -80 448 V_G2
IOPIN -80 448 In
FLAG 64 320 0
FLAG 1184 -32 Vout
IOPIN 1184 -32 Out
FLAG -1216 160 0
FLAG -656 512 0
FLAG -400 -176 V_in
IOPIN -400 -176 In
FLAG -400 32 V_G1
IOPIN -400 32 Out
FLAG -400 96 V_G2
IOPIN -400 96 Out
FLAG -400 -32 V_c
IOPIN -400 -32 In
FLAG -80 192 V_in
IOPIN -80 192 In
FLAG 480 512 0
FLAG -448 512 0
FLAG -304 512 0
FLAG -448 400 V_in
IOPIN -448 400 In
FLAG -304 400 V_c
IOPIN -304 400 In
SYMBOL ind2 208 80 R0
WINDOW 3 36 68 Left 2
SYMATTR Value 5µ
SYMATTR InstName L_P1
SYMATTR Type ind
SYMATTR SpiceLine Rser=1m
SYMBOL ind2 208 192 R0
WINDOW 3 36 68 Left 2
SYMATTR Value 5µ
SYMATTR InstName L_P2
SYMATTR Type ind
SYMBOL ind2 400 256 R180
WINDOW 0 36 80 Left 2
WINDOW 3 36 52 Left 2
SYMATTR InstName L_S
SYMATTR Value 6.25m
SYMATTR Type ind
SYMATTR SpiceLine Rser=1m
SYMBOL nmos 64 -64 R0
SYMATTR InstName M1
SYMATTR Value IRFB4110
SYMBOL nmos 64 368 R0
SYMATTR InstName M2
SYMATTR Value IRFB4110
SYMBOL res 960 -48 R90
WINDOW 0 0 56 VBottom 2
WINDOW 3 32 56 VTop 2
SYMATTR InstName R1
SYMATTR Value 470
SYMBOL cap 48 224 R0
SYMATTR InstName C1
SYMATTR Value 4700µ
SYMBOL SG3525A -656 128 R0
SYMATTR InstName U1
SYMBOL res -944 368 R0
SYMATTR InstName R_ni
SYMATTR Value 10k
SYMBOL cap -1024 16 R90
WINDOW 0 0 32 VBottom 2
WINDOW 3 32 32 VTop 2
SYMATTR InstName C_T
SYMATTR Value 10n
SYMBOL res -848 368 R0
SYMATTR InstName R_shd
SYMATTR Value 10k
SYMBOL res -1040 368 R0
SYMATTR InstName R_inv
SYMATTR Value 10k
SYMBOL cap -1136 400 R0
SYMATTR InstName C_cmp
SYMATTR Value 1µ
SYMBOL res -864 80 R90
WINDOW 0 0 56 VBottom 2
WINDOW 3 32 56 VTop 2
SYMATTR InstName R_D
SYMATTR Value 47
SYMBOL res -864 -48 R90
WINDOW 0 0 56 VBottom 2
WINDOW 3 32 56 VTop 2
SYMATTR InstName R_T
SYMATTR Value 2K
SYMBOL res -608 -256 R90
WINDOW 0 0 56 VBottom 2
WINDOW 3 32 56 VTop 2
SYMATTR InstName R_vrf
SYMATTR Value 10K
SYMBOL voltage -448 400 R0
SYMATTR InstName V_in
SYMATTR Value 24V
SYMBOL voltage -304 400 R0
SYMATTR InstName V_c
SYMATTR Value 18V
SYMBOL diode 496 80 R180
WINDOW 0 24 64 Left 2
WINDOW 3 24 0 Left 2
SYMATTR InstName D1
SYMATTR Value RHRP15120
SYMBOL diode 672 80 R180
WINDOW 0 24 64 Left 2
WINDOW 3 24 0 Left 2
SYMATTR InstName D2
SYMATTR Value RHRP15120
SYMBOL diode 496 368 R180
WINDOW 0 24 64 Left 2
WINDOW 3 24 0 Left 2
SYMATTR InstName D3
SYMATTR Value RHRP15120
SYMBOL diode 672 368 R180
WINDOW 0 24 64 Left 2
WINDOW 3 24 0 Left 2
SYMATTR InstName D4
SYMATTR Value RHRP15120
SYMBOL diode 704 -16 R270
WINDOW 0 32 32 VTop 2
WINDOW 3 0 32 VBottom 2
SYMATTR InstName D5
SYMATTR Value RHRP15120
SYMBOL ind 752 -96 R270
WINDOW 0 32 56 VTop 2
WINDOW 3 5 56 VBottom 2
SYMATTR InstName L1
SYMATTR Value 1m
SYMBOL cap 976 160 R0
SYMATTR InstName C2
SYMATTR Value 1µ
SYMBOL cap 800 160 R0
SYMATTR InstName C3
SYMATTR Value 2.2n
SYMBOL res 1120 128 R0
SYMATTR InstName R_L
SYMATTR Value 68
SYMBOL res 48 0 R90
WINDOW 0 0 56 VBottom 2
WINDOW 3 32 56 VTop 2
SYMATTR InstName R_G1
SYMATTR Value 10
SYMBOL res 48 432 R90
WINDOW 0 0 56 VBottom 2
WINDOW 3 32 56 VTop 2
SYMATTR InstName R_G2
SYMATTR Value 10
TEXT -96 -456 Left 2 !K1 L_P1 L_P2 L_S 0.99
TEXT -120 -488 Left 2 ;Simulación:
TEXT -96 -384 Left 2 !.model IRFB4110 VDMOS(Rg=1.0 Vto=4.0 Rd=1.5m Rs=1.5m Rb=2m Kp=120 \n+ Lambda=0.01 Cgs=9n Cgdmax=4n Cgdmin=0.6n Cds=0.5n \n+ Vds=100 Ron=3.7m Qg=210n mfg=International_Rectifier)
TEXT -96 -288 Left 2 !.model RHRP15120 D(Is=1.5e-10 N=1.8 Rs=0.035 Ikf=50 Cjo=400p \n+ M=0.45 Vj=0.75 Isr=1e-10 Nr=2 Bv=1200 Ibv=100u Tt=65n \n+ mfg=Fairchild type=silicon)
TEXT -96 -424 Left 2 !.tran 0 10m 0 100n
