Version 4
SHEET 1 932 680
WIRE 544 -112 384 -112
WIRE 704 -112 544 -112
WIRE 384 -64 384 -112
WIRE 448 -64 432 -64
WIRE 544 -64 544 -112
WIRE 608 -64 592 -64
WIRE 176 48 -64 48
WIRE 384 48 384 0
WIRE 384 48 240 48
WIRE -64 112 -64 48
WIRE 176 112 176 48
WIRE 240 112 240 48
WIRE 704 112 704 -112
WIRE -64 256 -64 192
WIRE 176 256 176 192
WIRE 176 256 -64 256
WIRE 240 256 240 192
WIRE 544 256 544 0
WIRE 544 256 240 256
WIRE 384 288 384 48
WIRE 544 288 544 256
WIRE 384 400 384 352
WIRE 544 400 544 352
WIRE 544 400 384 400
WIRE 704 400 704 192
WIRE 704 400 544 400
FLAG 608 -64 V_G2
IOPIN 608 -64 Out
FLAG 448 -64 V_G1
IOPIN 448 -64 Out
SYMBOL voltage -64 96 R0
WINDOW 123 24 124 Left 2
WINDOW 39 0 0 Left 0
SYMATTR InstName V_in
SYMATTR Value SINE(0 220 50)
SYMATTR Value2 AC 220
SYMBOL Misc\\SCR 400 0 R180
SYMATTR InstName T1
SYMATTR Value ""
SYMBOL Misc\\SCR 560 0 R180
SYMATTR InstName T2
SYMATTR Value ""
SYMBOL ind2 160 96 R0
SYMATTR InstName L_P
SYMATTR Value ""
SYMBOL ind2 224 96 R0
SYMATTR InstName L_S
SYMATTR Value ""
SYMBOL diode 400 352 R180
WINDOW 0 24 64 Left 2
WINDOW 3 24 0 Left 2
SYMATTR InstName D1
SYMATTR Value ""
SYMBOL diode 560 352 R180
WINDOW 0 24 64 Left 2
WINDOW 3 24 0 Left 2
SYMATTR InstName D2
SYMATTR Value ""
SYMBOL res 688 96 R0
SYMATTR InstName R_L
SYMATTR Value ""
TEXT 192 32 Left 2 ;TR
