Version 4
SHEET 1 1832 1100
WIRE 640 -128 384 -128
WIRE 896 -128 640 -128
WIRE 1072 -128 896 -128
WIRE 384 -64 384 -128
WIRE 448 -64 432 -64
WIRE 640 -64 640 -128
WIRE 704 -64 688 -64
WIRE 896 -64 896 -128
WIRE 960 -64 944 -64
WIRE 1424 48 1408 48
WIRE 1520 48 1504 48
WIRE 144 64 16 64
WIRE 384 64 384 0
WIRE 384 64 224 64
WIRE 400 64 384 64
WIRE 1072 144 1072 -128
WIRE 1104 144 1072 144
WIRE 1072 192 1072 144
WIRE 1424 192 1408 192
WIRE 1520 192 1504 192
WIRE 16 224 16 64
WIRE 144 224 16 224
WIRE 640 224 640 0
WIRE 640 224 224 224
WIRE 656 224 640 224
WIRE 1424 336 1408 336
WIRE 1520 336 1504 336
WIRE 16 384 16 224
WIRE 144 384 16 384
WIRE 896 384 896 0
WIRE 896 384 224 384
WIRE 912 384 896 384
WIRE 384 448 384 64
WIRE 640 448 640 224
WIRE 896 448 896 384
WIRE 384 576 384 512
WIRE 640 576 640 512
WIRE 640 576 384 576
WIRE 896 576 896 512
WIRE 896 576 640 576
WIRE 1072 576 1072 272
WIRE 1072 576 896 576
WIRE 16 592 16 384
FLAG 16 592 0
FLAG 448 -64 V_G1
IOPIN 448 -64 In
FLAG 704 -64 V_G2
IOPIN 704 -64 In
FLAG 960 -64 V_G3
IOPIN 960 -64 In
FLAG 1520 48 V_G1
IOPIN 1520 48 Out
FLAG 1520 192 V_G2
IOPIN 1520 192 Out
FLAG 1520 336 V_G3
IOPIN 1520 336 Out
FLAG 1408 48 0
FLAG 1408 192 0
FLAG 1408 336 0
FLAG 1104 144 V_L
IOPIN 1104 144 Out
FLAG 400 64 V_1
IOPIN 400 64 Out
FLAG 656 224 V_2
IOPIN 656 224 Out
FLAG 912 384 V_3
IOPIN 912 384 Out
SYMBOL voltage 240 64 R90
WINDOW 0 -32 56 VBottom 2
WINDOW 3 32 56 VTop 2
SYMATTR InstName V_1
SYMATTR Value SINE(0 70.71 50 0 0 0)
SYMBOL voltage 240 224 R90
WINDOW 0 -32 56 VBottom 2
WINDOW 3 32 56 VTop 2
SYMATTR InstName V_2
SYMATTR Value SINE(0 70.71 50 0 0 120)
SYMBOL voltage 240 384 R90
WINDOW 0 -32 56 VBottom 2
WINDOW 3 32 56 VTop 2
WINDOW 123 0 0 Left 0
WINDOW 39 0 0 Left 0
SYMATTR InstName V_3
SYMATTR Value SINE(0 70.71 50 0 0 240)
SYMBOL diode 400 512 R180
WINDOW 0 24 64 Left 2
WINDOW 3 24 0 Left 2
SYMATTR InstName D1
SYMATTR Value MUR460
SYMBOL diode 656 512 R180
WINDOW 0 24 64 Left 2
WINDOW 3 24 0 Left 2
SYMATTR InstName D2
SYMATTR Value MUR460
SYMBOL diode 912 512 R180
WINDOW 0 24 64 Left 2
WINDOW 3 24 0 Left 2
SYMATTR InstName D3
SYMATTR Value MUR460
SYMBOL res 1056 176 R0
SYMATTR InstName R_L
SYMATTR Value 25
SYMBOL voltage 1520 192 R90
WINDOW 0 -32 56 VBottom 2
WINDOW 3 32 56 VTop 2
SYMATTR InstName V_G2
SYMATTR Value PULSE(0 5 11.66m 1u 1u 1m 20m)
SYMBOL voltage 1520 336 R90
WINDOW 0 -32 56 VBottom 2
WINDOW 3 32 56 VTop 2
SYMATTR InstName V_G3
SYMATTR Value PULSE(0 5 18.33m 1u 1u 1m 20m)
SYMBOL voltage 1520 48 R90
WINDOW 0 -32 56 VBottom 2
WINDOW 3 32 56 VTop 2
WINDOW 123 0 0 Left 0
WINDOW 39 0 0 Left 0
SYMATTR InstName V_G1
SYMATTR Value PULSE(0 5 5m 1u 1u 1m 20m)
SYMBOL Misc\\SCR 400 0 R180
SYMATTR InstName U1
SYMBOL Misc\\SCR 656 0 R180
SYMATTR InstName U2
SYMBOL Misc\\SCR 912 0 R180
SYMATTR InstName U3
TEXT 1184 -144 Left 2 ;Simulación
TEXT 1200 -120 Left 2 !.inc thyristr.lib
TEXT 1200 -88 Left 2 !.tran 0 60m 20m 10u
