Version 4
SHEET 1 900 772
WIRE 304 -16 160 -16
WIRE 512 -16 384 -16
WIRE 592 64 336 64
WIRE 336 112 336 64
WIRE 48 208 -224 208
WIRE 208 208 128 208
WIRE 592 208 464 208
WIRE -224 272 -224 208
WIRE -96 272 -224 272
WIRE 0 272 -32 272
WIRE 208 272 0 272
WIRE 592 272 464 272
WIRE 0 336 0 272
WIRE 48 336 0 336
WIRE 208 336 128 336
WIRE 592 336 464 336
WIRE -224 400 -224 272
WIRE 208 400 -128 400
WIRE 208 464 -32 464
WIRE 512 464 512 -16
WIRE 512 464 464 464
WIRE 160 528 160 -16
WIRE 160 528 64 528
WIRE 208 528 160 528
WIRE 208 592 160 592
WIRE -128 624 -128 400
WIRE -32 624 -32 464
WIRE 64 624 64 528
WIRE 160 624 160 592
WIRE 560 656 560 640
WIRE 688 656 688 640
WIRE -128 736 -128 688
WIRE -32 736 -32 704
WIRE -32 736 -128 736
WIRE 64 736 64 704
WIRE 64 736 -32 736
WIRE 160 736 160 704
WIRE 160 736 64 736
WIRE 336 736 336 624
WIRE 336 736 160 736
WIRE 336 752 336 736
WIRE 560 752 560 736
WIRE 688 752 688 736
FLAG -224 400 0
FLAG 336 752 0
FLAG 592 272 V_G1
IOPIN 592 272 Out
FLAG 592 336 V_G2
IOPIN 592 336 Out
FLAG 592 64 V_in
IOPIN 592 64 In
FLAG 592 208 V_c
IOPIN 592 208 In
FLAG 560 752 0
FLAG 688 752 0
FLAG 560 640 V_in
IOPIN 560 640 In
FLAG 688 640 V_c
IOPIN 688 640 In
SYMBOL SG3525A 336 368 R0
SYMATTR InstName U1
SYMBOL res 144 608 R0
SYMATTR InstName R_shd
SYMATTR Value 10k
SYMBOL res 48 608 R0
SYMATTR InstName R_ni
SYMATTR Value 10k
SYMBOL res -48 608 R0
SYMATTR InstName R_inv
SYMATTR Value 10k
SYMBOL cap -144 624 R0
SYMATTR InstName C_cmp
SYMATTR Value 1µ
SYMBOL res 144 192 R90
WINDOW 0 0 56 VBottom 2
WINDOW 3 32 56 VTop 2
SYMATTR InstName R_T
SYMATTR Value 2k
SYMBOL res 144 320 R90
WINDOW 0 0 56 VBottom 2
WINDOW 3 32 56 VTop 2
SYMATTR InstName R_D
SYMATTR Value 47
SYMBOL cap -32 256 R90
WINDOW 0 0 32 VBottom 2
WINDOW 3 32 32 VTop 2
SYMATTR InstName C_T
SYMATTR Value 10n
SYMBOL voltage 560 640 R0
SYMATTR InstName V_in
SYMATTR Value 24V
SYMBOL voltage 688 640 R0
SYMATTR InstName V_c
SYMATTR Value 18V
SYMBOL res 400 -32 R90
WINDOW 0 0 56 VBottom 2
WINDOW 3 32 56 VTop 2
SYMATTR InstName R_vrf
SYMATTR Value 10k
TEXT -280 0 Left 2 !.tran 0 0.2m 0 10n
TEXT -304 -32 Left 2 ;Simulación:
