Version 4
SHEET 1 1832 1100
WIRE 1344 -160 1328 -160
WIRE 1440 -160 1424 -160
WIRE 640 -128 384 -128
WIRE 896 -128 640 -128
WIRE 1072 -128 896 -128
WIRE 384 -64 384 -128
WIRE 448 -64 432 -64
WIRE 640 -64 640 -128
WIRE 704 -64 688 -64
WIRE 896 -64 896 -128
WIRE 960 -64 944 -64
WIRE 1344 -16 1328 -16
WIRE 1440 -16 1424 -16
WIRE 112 64 -16 64
WIRE 384 64 384 0
WIRE 384 64 192 64
WIRE 400 64 384 64
WIRE 1344 128 1328 128
WIRE 1440 128 1424 128
WIRE 1072 144 1072 -128
WIRE 1104 144 1072 144
WIRE 1072 192 1072 144
WIRE -16 224 -16 64
WIRE 112 224 -16 224
WIRE 640 224 640 0
WIRE 640 224 192 224
WIRE 656 224 640 224
WIRE 1344 272 1328 272
WIRE 1440 272 1424 272
WIRE -16 384 -16 224
WIRE 112 384 -16 384
WIRE 896 384 896 0
WIRE 896 384 192 384
WIRE 912 384 896 384
WIRE 1344 416 1328 416
WIRE 1440 416 1424 416
WIRE 384 448 384 64
WIRE 448 448 432 448
WIRE 640 448 640 224
WIRE 704 448 688 448
WIRE 896 448 896 384
WIRE 960 448 944 448
WIRE 1344 560 1328 560
WIRE 1440 560 1424 560
WIRE 384 576 384 512
WIRE 640 576 640 512
WIRE 640 576 384 576
WIRE 896 576 896 512
WIRE 896 576 640 576
WIRE 1072 576 1072 272
WIRE 1072 576 896 576
WIRE -16 592 -16 384
FLAG -16 592 0
FLAG 448 -64 V_G1
IOPIN 448 -64 In
FLAG 704 -64 V_G2
IOPIN 704 -64 In
FLAG 960 -64 V_G3
IOPIN 960 -64 In
FLAG 1440 -160 V_G1
IOPIN 1440 -160 Out
FLAG 1440 -16 V_G2
IOPIN 1440 -16 Out
FLAG 1440 128 V_G3
IOPIN 1440 128 Out
FLAG 1104 144 V_L
IOPIN 1104 144 Out
FLAG 400 64 V_1
IOPIN 400 64 Out
FLAG 656 224 V_2
IOPIN 656 224 Out
FLAG 912 384 V_3
IOPIN 912 384 Out
FLAG 640 -128 K_1
FLAG 1328 -160 K_1
FLAG 1440 272 V_G4
IOPIN 1440 272 Out
FLAG 1440 416 V_G5
IOPIN 1440 416 Out
FLAG 1440 560 V_G6
IOPIN 1440 560 Out
FLAG 1328 -16 K_1
FLAG 1328 128 K_1
FLAG 448 448 V_G4
IOPIN 448 448 In
FLAG 704 448 V_G5
IOPIN 704 448 In
FLAG 960 448 V_G6
IOPIN 960 448 In
FLAG 1328 272 V_1
IOPIN 1328 272 Out
FLAG 1328 416 V_2
IOPIN 1328 416 Out
FLAG 1328 560 V_3
IOPIN 1328 560 Out
SYMBOL voltage 208 64 R90
WINDOW 0 -32 56 VBottom 2
WINDOW 3 32 56 VTop 2
SYMATTR InstName V_1
SYMATTR Value SINE(0 70.71 50 0 0 0)
SYMBOL voltage 208 224 R90
WINDOW 0 -32 56 VBottom 2
WINDOW 3 32 56 VTop 2
SYMATTR InstName V_2
SYMATTR Value SINE(0 70.71 50 0 0 -120)
SYMBOL voltage 208 384 R90
WINDOW 0 -32 56 VBottom 2
WINDOW 3 32 56 VTop 2
WINDOW 123 0 0 Left 0
WINDOW 39 0 0 Left 0
SYMATTR InstName V_3
SYMATTR Value SINE(0 70.71 50 0 0 120)
SYMBOL res 1056 176 R0
SYMATTR InstName R_L
SYMATTR Value 25
SYMBOL voltage 1440 -16 R90
WINDOW 0 -32 56 VBottom 2
WINDOW 3 32 56 VTop 2
SYMATTR InstName V_G2
SYMATTR Value PULSE(0 5 15.833m 1u 1u 7m 20m)
SYMBOL voltage 1440 128 R90
WINDOW 0 -32 56 VBottom 2
WINDOW 3 32 56 VTop 2
SYMATTR InstName V_G3
SYMATTR Value PULSE(0 5 2.500m 1u 1u 7m 20m)
SYMBOL voltage 1440 -160 R90
WINDOW 0 -32 56 VBottom 2
WINDOW 3 32 56 VTop 2
WINDOW 123 0 0 Left 0
WINDOW 39 0 0 Left 0
SYMATTR InstName V_G1
SYMATTR Value PULSE(0 5 9.167m 1u 1u 7m 20m)
SYMBOL Misc\\SCR 400 0 R180
SYMATTR InstName U1
SYMBOL Misc\\SCR 656 0 R180
SYMATTR InstName U2
SYMBOL Misc\\SCR 912 0 R180
SYMATTR InstName U3
SYMBOL Misc\\SCR 400 512 R180
SYMATTR InstName U4
SYMBOL Misc\\SCR 656 512 R180
SYMATTR InstName U5
SYMBOL Misc\\SCR 912 512 R180
SYMATTR InstName U6
SYMBOL voltage 1440 416 R90
WINDOW 0 -32 56 VBottom 2
WINDOW 3 32 56 VTop 2
SYMATTR InstName V_G4
SYMATTR Value PULSE(0 5 5.833m 1u 1u 7m 20m)
SYMBOL voltage 1440 560 R90
WINDOW 0 -32 56 VBottom 2
WINDOW 3 32 56 VTop 2
SYMATTR InstName V_G5
SYMATTR Value PULSE(0 5 12.500m 1u 1u 7m 20m)
SYMBOL voltage 1440 272 R90
WINDOW 0 -32 56 VBottom 2
WINDOW 3 32 56 VTop 2
WINDOW 123 0 0 Left 0
WINDOW 39 0 0 Left 0
SYMATTR InstName V_G6
SYMATTR Value PULSE(0 5 19.167m 1u 1u 7m 20m)
TEXT -16 -152 Left 2 ;Simulación:
TEXT 8 -120 Left 2 !.inc thyristr.lib
TEXT 8 -88 Left 2 !.tran 0 60m 20m 10u
