Version 4
SHEET 1 2104 680
WIRE 496 -32 496 -48
WIRE 496 -32 368 -32
WIRE 560 -32 496 -32
WIRE 704 -32 704 -48
WIRE 704 -32 640 -32
WIRE 880 -32 704 -32
WIRE 1024 -32 880 -32
WIRE 1296 -32 1024 -32
WIRE 1760 -32 1456 -32
WIRE 368 0 368 -32
WIRE 496 0 496 -32
WIRE 880 16 880 -32
WIRE 1024 16 1024 -32
WIRE 1296 16 1296 -32
WIRE 1456 16 1456 -32
WIRE 1872 16 1872 -16
WIRE 496 64 496 48
WIRE -128 96 -128 64
WIRE 144 96 -128 96
WIRE 240 96 240 64
WIRE 368 96 368 64
WIRE 368 96 240 96
WIRE 1760 96 1760 -32
WIRE 1024 128 1024 96
WIRE 1296 128 1296 96
WIRE 1456 128 1456 96
WIRE 1712 128 1456 128
WIRE 1872 128 1872 96
WIRE 1872 128 1712 128
WIRE -128 144 -128 96
WIRE 144 144 144 96
WIRE 240 144 240 96
WIRE 704 144 704 -32
WIRE 1712 160 1712 128
WIRE 1872 160 1872 128
WIRE 880 176 880 96
WIRE 960 176 880 176
WIRE 1200 176 1136 176
WIRE 1680 240 1456 240
WIRE 1824 240 1824 224
WIRE 1824 240 1744 240
WIRE 1024 256 1024 224
WIRE 1136 256 1136 176
WIRE 1136 256 1024 256
WIRE 1152 256 1136 256
WIRE -128 272 -128 224
WIRE 144 272 144 224
WIRE 144 272 -128 272
WIRE 240 272 240 224
WIRE 496 272 496 64
WIRE 496 272 240 272
WIRE 880 272 880 176
WIRE 1456 272 1456 240
WIRE -128 288 -128 272
WIRE 1024 288 1024 256
WIRE 1296 288 1296 224
WIRE 368 304 368 96
WIRE 496 304 496 272
WIRE 368 400 368 368
WIRE 496 400 496 368
WIRE 496 400 368 400
WIRE 704 400 704 208
WIRE 704 400 496 400
WIRE 880 400 880 352
WIRE 880 400 704 400
WIRE 1024 400 1024 352
WIRE 1024 400 880 400
WIRE 1296 400 1296 368
WIRE 1296 400 1024 400
WIRE 1456 400 1456 352
WIRE 1680 400 1456 400
WIRE 1872 400 1872 224
WIRE 1872 400 1744 400
WIRE 496 416 496 400
WIRE 1712 464 1712 224
WIRE 1792 464 1712 464
WIRE 1872 464 1872 400
WIRE 1872 464 1792 464
WIRE 1792 480 1792 464
FLAG 704 -48 V_Rect
IOPIN 704 -48 Out
FLAG 240 64 V_S
IOPIN 240 64 Out
FLAG -128 64 V_P
IOPIN -128 64 Out
FLAG -128 288 0
FLAG 496 416 0
FLAG 496 -48 V_d
IOPIN 496 -48 Out
FLAG 1152 256 V_C1
IOPIN 1152 256 Out
FLAG 1872 -16 V_P
IOPIN 1872 -16 In
FLAG 1792 480 0
SYMBOL voltage -128 128 R0
WINDOW 123 24 124 Left 2
WINDOW 39 0 0 Left 0
SYMATTR Value2 AC 220
SYMATTR InstName V_in
SYMATTR Value SINE(0 311.12 50)
SYMBOL ind2 128 128 R0
SYMATTR InstName L_P
SYMATTR Value 84µ
SYMATTR Type ind
SYMATTR SpiceLine Rser=1m
SYMBOL ind2 224 128 R0
SYMATTR InstName L_S
SYMATTR Value 1µ
SYMATTR Type ind
SYMATTR SpiceLine Rser=1m
SYMBOL diode 384 64 R180
WINDOW 0 24 64 Left 2
WINDOW 3 24 0 Left 2
SYMATTR InstName D_1
SYMATTR Value 1N4007
SYMBOL diode 512 64 R180
WINDOW 0 24 64 Left 2
WINDOW 3 24 0 Left 2
SYMATTR InstName D_2
SYMATTR Value 1N4007
SYMBOL diode 384 368 R180
WINDOW 0 24 64 Left 2
WINDOW 3 24 0 Left 2
SYMATTR InstName D_3
SYMATTR Value 1N4007
SYMBOL diode 512 368 R180
WINDOW 0 24 64 Left 2
WINDOW 3 24 0 Left 2
SYMATTR InstName D_4
SYMATTR Value 1N4007
SYMBOL zener 720 208 R180
WINDOW 0 24 64 Left 2
WINDOW 3 24 0 Left 2
SYMATTR InstName D_Z
SYMATTR Value BZX84C24VLY
SYMBOL res 656 -48 R90
WINDOW 0 0 56 VBottom 2
WINDOW 3 32 56 VTop 2
SYMATTR InstName R_Z
SYMATTR Value 500
SYMBOL res 864 0 R0
SYMATTR InstName R_1
SYMATTR Value 4.7k
SYMBOL res 864 256 R0
SYMATTR InstName R_F
SYMATTR Value 100k
SYMBOL pnp 960 224 M180
SYMATTR InstName Q1
SYMATTR Value 2N3906
SYMBOL res 1008 0 R0
SYMATTR InstName R_2
SYMATTR Value 1K
SYMBOL cap 1008 288 R0
SYMATTR InstName C1
SYMATTR Value 0.1µ
SYMBOL 2N2646 1248 128 R0
SYMATTR InstName U1
SYMBOL res 1280 0 R0
SYMATTR InstName R_B2
SYMATTR Value 470
SYMBOL ind2 1280 272 R0
SYMATTR InstName L_P2
SYMATTR Value 1
SYMATTR Type ind
SYMBOL ind2 1440 0 R0
SYMATTR InstName L_S2A
SYMATTR Value 1
SYMATTR Type ind
SYMBOL res 1856 0 R0
SYMATTR InstName R_L
SYMATTR Value 13.44
SYMBOL ind2 1440 256 R0
SYMATTR InstName L_S2B
SYMATTR Value 1
SYMATTR Type ind
SYMBOL Misc\\SCR 1728 224 R180
SYMATTR InstName U2
SYMBOL Misc\\SCR 1856 160 R0
SYMATTR InstName U3
SYMBOL Misc\\jumper 1712 304 R180
SYMATTR InstName X1
SYMBOL Misc\\jumper 1712 464 R180
SYMATTR InstName X2
SYMBOL Misc\\jumper 1824 128 R90
SYMATTR InstName X3
TEXT -104 -224 Left 2 ;Simulación:
TEXT -80 -96 Left 2 !K1 L_P L_S 0.99
TEXT -80 -128 Left 2 !.tran 0 90m 1u 1u
TEXT -80 -160 Left 2 !.include 2N2646.sub
TEXT -80 -192 Left 2 !.inc thyristr.lib
TEXT -80 -64 Left 2 !K2 L_P2 L_S2A L_S2B 0.99
